data_image0
_chemical_formula_structural       Ti2O4
_chemical_formula_sum              "Ti2 O4"
_cell_length_a       5.613730961586434
_cell_length_b       5.805589704721934
_cell_length_c       5.489280900300778
_cell_angle_alpha    60.19680403941783
_cell_angle_beta     39.664592861000855
_cell_angle_gamma    60.00021951260018

_space_group_name_H-M_alt    "P 1"
_space_group_IT_number       1

loop_
  _space_group_symop_operation_xyz
  'x, y, z'

loop_
  _atom_site_type_symbol
  _atom_site_label
  _atom_site_symmetry_multiplicity
  _atom_site_fract_x
  _atom_site_fract_y
  _atom_site_fract_z
  _atom_site_occupancy
  Ti  Ti1       1.0  0.6275655848520116  0.5153586161778216  0.7013247420300571  1.0000
  Ti  Ti2       1.0  0.8651136680793863  0.7975711510773763  0.9170957089782783  1.0000
  O   O1        1.0  0.41224044727605524  0.7218808269264256  0.46810559396796053  1.0000
  O   O2        1.0  0.7821557512296544  0.15577597313350464  0.8542813341627853  1.0000
  O   O3        1.0  0.7074122669379647  0.7329265299848502  0.767586417497363  1.0000
  O   O4        1.0  0.07906230882926191  0.5296025745533592  0.14746627652145516  1.0000
